plots/csv/rotor_angle_dev_bus25_julia.csv
t_s,rotor_angle_dev_rad,bus_voltage_angle_dev_rad,angle_source,angle_is_exact_bus_voltage
0.0,0.0,0.0,Vmag_get_voltage_magnitude_series__angle_get_voltage_angle_series,true
0.01,8.340550472496486e-16,8.340550472496486e-16,Vmag_get_voltage_magnitude_series__angle_get_voltage_angle_series,true
0.02,1.0130785099704124e-16,1.0130785099704124e-16,Vmag_get_voltage_magnitude_series__angle_get_voltage_angle_series,true
0.03,2.817190924986287e-16,2.817190924986287e-16,Vmag_get_voltage_magnitude_series__angle_get_voltage_angle_series,true
0.04,5.925815393936829e-16,5.925815393936829e-16,Vmag_get_voltage_magnitude_series__angle_get_voltage_angle_series,true
0.05,-6.938893903864926e-18,-6.938893903864926e-18,Vmag_get_voltage_magnitude_series__angle_get_voltage_angle_series,true
0.06,2.609024107869367e-16,2.609024107869367e-16,Vmag_get_voltage_magnitude_series__angle_get_voltage_angle_series,true
0.07,1.970645868709727e-16,1.970645868709727e-16,Vmag_get_voltage_magnitude_series__angle_get_voltage_angle_series,true
0.08,-1.2073675392791058e-16,-1.2073675392791058e-16,Vmag_get_voltage_magnitude_series__angle_get_voltage_angle_series,true
0.09,2.0816681711724187e-16,2.0816681711724187e-16,Vmag_get_voltage_magnitude_series__angle_get_voltage_angle_series,true
0.1,2.1510571102112408e-16,2.1510571102112408e-16,Vmag_get_voltage_magnitude_series__angle_get_voltage_angle_series,true
0.11,-0.0010354592103862985,-0.0010354592103862985,Vmag_get_voltage_magnitude_series__angle_get_voltage_angle_series,true
0.12,-0.0010575581383595312,-0.0010575581383595312,Vmag_get_voltage_magnitude_series__angle_get_voltage_angle_series,true
0.13,-0.0009046490532720162,-0.0009046490532720162,Vmag_get_voltage_magnitude_series__angle_get_voltage_angle_series,true
0.14,-0.000869911164614943,-0.000869911164614943,Vmag_get_voltage_magnitude_series__angle_get_voltage_angle_series,true
0.15,-0.0008916599080165931,-0.0008916599080165931,Vmag_get_voltage_magnitude_series__angle_get_voltage_angle_series,true
0.16,-0.0009506490225802,-0.0009506490225802,Vmag_get_voltage_magnitude_series__angle_get_voltage_angle_series,true
0.17,-0.0010318373054626526,-0.0010318373054626526,Vmag_get_voltage_magnitude_series__angle_get_voltage_angle_series,true
0.18,-0.0011281481674926945,-0.0011281481674926945,Vmag_get_voltage_magnitude_series__angle_get_voltage_angle_series,true
0.19,-0.0012349065481832024,-0.0012349065481832024,Vmag_get_voltage_magnitude_series__angle_get_voltage_angle_series,true
0.2,-0.0013505895995282948,-0.0013505895995282948,Vmag_get_voltage_magnitude_series__angle_get_voltage_angle_series,true
0.21,-0.0014745568588283233,-0.0014745568588283233,Vmag_get_voltage_magnitude_series__angle_get_voltage_angle_series,true
0.22,-0.0016065341514477983,-0.0016065341514477983,Vmag_get_voltage_magnitude_series__angle_get_voltage_angle_series,true
0.23,-0.001746307691464906,-0.001746307691464906,Vmag_get_voltage_magnitude_series__angle_get_voltage_angle_series,true
0.24,-0.001893771867782202,-0.001893771867782202,Vmag_get_voltage_magnitude_series__angle_get_voltage_angle_series,true
0.25,-0.0020488261027455765,-0.0020488261027455765,Vmag_get_voltage_magnitude_series__angle_get_voltage_angle_series,true
0.26,-0.0022113757531669206,-0.0022113757531669206,Vmag_get_voltage_magnitude_series__angle_get_voltage_angle_series,true
0.27,-0.002381308051687192,-0.002381308051687192,Vmag_get_voltage_magnitude_series__angle_get_voltage_angle_series,true
0.28,-0.00255848967570628,-0.00255848967570628,Vmag_get_voltage_magnitude_series__angle_get_voltage_angle_series,true
0.29,-0.0027427649206411314,-0.0027427649206411314,Vmag_get_voltage_magnitude_series__angle_get_voltage_angle_series,true
0.3,-0.002933955362808472,-0.002933955362808472,Vmag_get_voltage_magnitude_series__angle_get_voltage_angle_series,true
0.31,-0.0031318612561894448,-0.0031318612561894448,Vmag_get_voltage_magnitude_series__angle_get_voltage_angle_series,true
0.32,-0.0033362622666628255,-0.0033362622666628255,Vmag_get_voltage_magnitude_series__angle_get_voltage_angle_series,true
0.33,-0.003546918173662282,-0.003546918173662282,Vmag_get_voltage_magnitude_series__angle_get_voltage_angle_series,true
0.34,-0.003763569207960805,-0.003763569207960805,Vmag_get_voltage_magnitude_series__angle_get_voltage_angle_series,true
0.35,-0.0039859360833816,-0.0039859360833816,Vmag_get_voltage_magnitude_series__angle_get_voltage_angle_series,true
0.36,-0.0042137201451339255,-0.0042137201451339255,Vmag_get_voltage_magnitude_series__angle_get_voltage_angle_series,true
0.37,-0.004446603550328501,-0.004446603550328501,Vmag_get_voltage_magnitude_series__angle_get_voltage_angle_series,true
0.38,-0.0046842498247778,-0.0046842498247778,Vmag_get_voltage_magnitude_series__angle_get_voltage_angle_series,true
0.39,-0.004926304728607567,-0.004926304728607567,Vmag_get_voltage_magnitude_series__angle_get_voltage_angle_series,true
0.4,-0.00517239742481348,-0.00517239742481348,Vmag_get_voltage_magnitude_series__angle_get_voltage_angle_series,true
0.41,-0.005422142123993508,-0.005422142123993508,Vmag_get_voltage_magnitude_series__angle_get_voltage_angle_series,true
0.42,-0.005675139764587412,-0.005675139764587412,Vmag_get_voltage_magnitude_series__angle_get_voltage_angle_series,true
0.43,-0.005930980039690132,-0.005930980039690132,Vmag_get_voltage_magnitude_series__angle_get_voltage_angle_series,true
0.44,-0.006189243450035266,-0.006189243450035266,Vmag_get_voltage_magnitude_series__angle_get_voltage_angle_series,true
0.45,-0.006449503385963536,-0.006449503385963536,Vmag_get_voltage_magnitude_series__angle_get_voltage_angle_series,true
0.46,-0.006711328271897023,-0.006711328271897023,Vmag_get_voltage_magnitude_series__angle_get_voltage_angle_series,true
0.47,-0.0069742836008111885,-0.0069742836008111885,Vmag_get_voltage_magnitude_series__angle_get_voltage_angle_series,true
0.48,-0.007237934016936491,-0.007237934016936491,Vmag_get_voltage_magnitude_series__angle_get_voltage_angle_series,true
0.49,-0.007501845304952491,-0.007501845304952491,Vmag_get_voltage_magnitude_series__angle_get_voltage_angle_series,true
0.5,-0.007765586374375492,-0.007765586374375492,Vmag_get_voltage_magnitude_series__angle_get_voltage_angle_series,true
0.51,-0.008028731223110326,-0.008028731223110326,Vmag_get_voltage_magnitude_series__angle_get_voltage_angle_series,true
0.52,-0.008290860848323324,-0.008290860848323324,Vmag_get_voltage_magnitude_series__angle_get_voltage_angle_series,true
0.53,-0.0085515651695355,-0.0085515651695355,Vmag_get_voltage_magnitude_series__angle_get_voltage_angle_series,true
0.54,-0.008810444879963734,-0.008810444879963734,Vmag_get_voltage_magnitude_series__angle_get_voltage_angle_series,true
0.55,-0.009067113261245837,-0.009067113261245837,Vmag_get_voltage_magnitude_series__angle_get_voltage_angle_series,true
0.56,-0.00932119792288113,-0.00932119792288113,Vmag_get_voltage_magnitude_series__angle_get_voltage_angle_series,true
0.57,-0.00957234243374369,-0.00957234243374369,Vmag_get_voltage_magnitude_series__angle_get_voltage_angle_series,true
0.58,-0.009820207864720567,-0.009820207864720567,Vmag_get_voltage_magnitude_series__angle_get_voltage_angle_series,true
0.59,-0.010064474144653725,-0.010064474144653725,Vmag_get_voltage_magnitude_series__angle_get_voltage_angle_series,true
0.6,-0.01030484130993858,-0.01030484130993858,Vmag_get_voltage_magnitude_series__angle_get_voltage_angle_series,true
0.61,-0.010541030551425544,-0.010541030551425544,Vmag_get_voltage_magnitude_series__angle_get_voltage_angle_series,true
0.62,-0.010772785066755303,-0.010772785066755303,Vmag_get_voltage_magnitude_series__angle_get_voltage_angle_series,true
0.63,-0.01099987077365391,-0.01099987077365391,Vmag_get_voltage_magnitude_series__angle_get_voltage_angle_series,true
0.64,-0.01122207678426102,-0.01122207678426102,Vmag_get_voltage_magnitude_series__angle_get_voltage_angle_series,true
0.65,-0.011439215721048708,-0.011439215721048708,Vmag_get_voltage_magnitude_series__angle_get_voltage_angle_series,true
0.66,-0.011651123863479182,-0.011651123863479182,Vmag_get_voltage_magnitude_series__angle_get_voltage_angle_series,true
0.67,-0.011857661092333464,-0.011857661092333464,Vmag_get_voltage_magnitude_series__angle_get_voltage_angle_series,true
0.68,-0.012058710726538755,-0.012058710726538755,Vmag_get_voltage_magnitude_series__angle_get_voltage_angle_series,true
0.69,-0.012254179176290271,-0.012254179176290271,Vmag_get_voltage_magnitude_series__angle_get_voltage_angle_series,true
0.7,-0.012443995486326657,-0.012443995486326657,Vmag_get_voltage_magnitude_series__angle_get_voltage_angle_series,true
0.71,-0.012628110761847857,-0.012628110761847857,Vmag_get_voltage_magnitude_series__angle_get_voltage_angle_series,true
0.72,-0.012806497484967849,-0.012806497484967849,Vmag_get_voltage_magnitude_series__angle_get_voltage_angle_series,true
0.73,-0.012979148758800657,-0.012979148758800657,Vmag_get_voltage_magnitude_series__angle_get_voltage_angle_series,true
0.74,-0.013146077456353676,-0.013146077456353676,Vmag_get_voltage_magnitude_series__angle_get_voltage_angle_series,true
0.75,-0.013307315310060063,-0.013307315310060063,Vmag_get_voltage_magnitude_series__angle_get_voltage_angle_series,true
0.76,-0.013462911958666324,-0.013462911958666324,Vmag_get_voltage_magnitude_series__angle_get_voltage_angle_series,true
0.77,-0.013612933934519972,-0.013612933934519972,Vmag_get_voltage_magnitude_series__angle_get_voltage_angle_series,true
0.78,-0.013757463619100794,-0.013757463619100794,Vmag_get_voltage_magnitude_series__angle_get_voltage_angle_series,true
0.79,-0.0138965981740716,-0.0138965981740716,Vmag_get_voltage_magnitude_series__angle_get_voltage_angle_series,true
0.8,-0.014030448448621667,-0.014030448448621667,Vmag_get_voltage_magnitude_series__angle_get_voltage_angle_series,true
0.81,-0.014159137872802418,-0.014159137872802418,Vmag_get_voltage_magnitude_series__angle_get_voltage_angle_series,true
0.82,-0.01428280134261563,-0.01428280134261563,Vmag_get_voltage_magnitude_series__angle_get_voltage_angle_series,true
0.83,-0.014401584096957258,-0.014401584096957258,Vmag_get_voltage_magnitude_series__angle_get_voltage_angle_series,true
0.84,-0.014515640606264544,-0.014515640606264544,Vmag_get_voltage_magnitude_series__angle_get_voltage_angle_series,true
0.85,-0.014625133459185796,-0.014625133459185796,Vmag_get_voltage_magnitude_series__angle_get_voltage_angle_series,true
0.86,-0.0147302322561076,-0.0147302322561076,Vmag_get_voltage_magnitude_series__angle_get_voltage_angle_series,true
0.87,-0.014831112529266407,-0.014831112529266407,Vmag_get_voltage_magnitude_series__angle_get_voltage_angle_series,true
0.88,-0.014927954668728106,-0.014927954668728106,Vmag_get_voltage_magnitude_series__angle_get_voltage_angle_series,true
0.89,-0.015020942874861316,-0.015020942874861316,Vmag_get_voltage_magnitude_series__angle_get_voltage_angle_series,true
0.9,-0.015110264138885747,-0.015110264138885747,Vmag_get_voltage_magnitude_series__angle_get_voltage_angle_series,true
0.91,-0.015196107244599036,-0.015196107244599036,Vmag_get_voltage_magnitude_series__angle_get_voltage_angle_series,true
0.92,-0.015278661810695092,-0.015278661810695092,Vmag_get_voltage_magnitude_series__angle_get_voltage_angle_series,true
0.93,-0.015358117362147917,-0.015358117362147917,Vmag_get_voltage_magnitude_series__angle_get_voltage_angle_series,true
0.94,-0.015434662443588045,-0.015434662443588045,Vmag_get_voltage_magnitude_series__angle_get_voltage_angle_series,true
0.95,-0.015508483774059986,-0.015508483774059986,Vmag_get_voltage_magnitude_series__angle_get_voltage_angle_series,true
0.96,-0.015579765443333173,-0.015579765443333173,Vmag_get_voltage_magnitude_series__angle_get_voltage_angle_series,true
0.97,-0.015648688163506043,-0.015648688163506043,Vmag_get_voltage_magnitude_series__angle_get_voltage_angle_series,true
0.98,-0.015715428559033313,-0.015715428559033313,Vmag_get_voltage_magnitude_series__angle_get_voltage_angle_series,true
0.99,-0.015780158517362367,-0.015780158517362367,Vmag_get_voltage_magnitude_series__angle_get_voltage_angle_series,true
1.0,-0.015843044594440307,-0.015843044594440307,Vmag_get_voltage_magnitude_series__angle_get_voltage_angle_series,true
1.01,-0.0159042474645465,-0.0159042474645465,Vmag_get_voltage_magnitude_series__angle_get_voltage_angle_series,true
1.02,-0.015963921440794823,-0.015963921440794823,Vmag_get_voltage_magnitude_series__angle_get_voltage_angle_series,true
1.03,-0.016022214044904125,-0.016022214044904125,Vmag_get_voltage_magnitude_series__angle_get_voltage_angle_series,true
1.04,-0.016079265632731526,-0.016079265632731526,Vmag_get_voltage_magnitude_series__angle_get_voltage_angle_series,true
1.05,-0.016135209088125338,-0.016135209088125338,Vmag_get_voltage_magnitude_series__angle_get_voltage_angle_series,true
1.06,-0.016190169561642712,-0.016190169561642712,Vmag_get_voltage_magnitude_series__angle_get_voltage_angle_series,true
1.07,-0.016244264274541214,-0.016244264274541214,Vmag_get_voltage_magnitude_series__angle_get_voltage_angle_series,true
1.08,-0.016297602376044735,-0.016297602376044735,Vmag_get_voltage_magnitude_series__angle_get_voltage_angle_series,true
1.09,-0.016350284854026526,-0.016350284854026526,Vmag_get_voltage_magnitude_series__angle_get_voltage_angle_series,true
1.1,-0.016402404501081352,-0.016402404501081352,Vmag_get_voltage_magnitude_series__angle_get_voltage_angle_series,true
1.11,-0.016454045924847553,-0.016454045924847553,Vmag_get_voltage_magnitude_series__angle_get_voltage_angle_series,true
1.12,-0.016505285613242764,-0.016505285613242764,Vmag_get_voltage_magnitude_series__angle_get_voltage_angle_series,true
1.13,-0.016556192043913225,-0.016556192043913225,Vmag_get_voltage_magnitude_series__angle_get_voltage_angle_series,true
1.14,-0.016606825830616123,-0.016606825830616123,Vmag_get_voltage_magnitude_series__angle_get_voltage_angle_series,true
1.15,-0.016657239914646543,-0.016657239914646543,Vmag_get_voltage_magnitude_series__angle_get_voltage_angle_series,true
1.16,-0.016707479795204438,-0.016707479795204438,Vmag_get_voltage_magnitude_series__angle_get_voltage_angle_series,true
1.17,-0.01675758378482404,-0.01675758378482404,Vmag_get_voltage_magnitude_series__angle_get_voltage_angle_series,true
1.18,-0.016807583301323478,-0.016807583301323478,Vmag_get_voltage_magnitude_series__angle_get_voltage_angle_series,true
1.19,-0.016857503185051893,-0.016857503185051893,Vmag_get_voltage_magnitude_series__angle_get_voltage_angle_series,true
1.2,-0.016907362037632753,-0.016907362037632753,Vmag_get_voltage_magnitude_series__angle_get_voltage_angle_series,true
1.21,-0.016957172584753582,-0.016957172584753582,Vmag_get_voltage_magnitude_series__angle_get_voltage_angle_series,true
1.22,-0.017006942048864236,-0.017006942048864236,Vmag_get_voltage_magnitude_series__angle_get_voltage_angle_series,true
1.23,-0.01705667254020474,-0.01705667254020474,Vmag_get_voltage_magnitude_series__angle_get_voltage_angle_series,true
1.24,-0.017106361460049926,-0.017106361460049926,Vmag_get_voltage_magnitude_series__angle_get_voltage_angle_series,true
1.25,-0.01715600190250785,-0.01715600190250785,Vmag_get_voltage_magnitude_series__angle_get_voltage_angle_series,true
1.26,-0.017205583068243383,-0.017205583068243383,Vmag_get_voltage_magnitude_series__angle_get_voltage_angle_series,true
1.27,-0.0172550906770925,-0.0172550906770925,Vmag_get_voltage_magnitude_series__angle_get_voltage_angle_series,true
1.28,-0.017304507376081676,-0.017304507376081676,Vmag_get_voltage_magnitude_series__angle_get_voltage_angle_series,true
1.29,-0.01735381314842913,-0.01735381314842913,Vmag_get_voltage_magnitude_series__angle_get_voltage_angle_series,true
1.3,-0.017402985710693705,-0.017402985710693705,Vmag_get_voltage_magnitude_series__angle_get_voltage_angle_series,true
1.31,-0.01745200090510829,-0.01745200090510829,Vmag_get_voltage_magnitude_series__angle_get_voltage_angle_series,true
1.32,-0.017500833079141062,-0.017500833079141062,Vmag_get_voltage_magnitude_series__angle_get_voltage_angle_series,true
1.33,-0.017549455451509245,-0.017549455451509245,Vmag_get_voltage_magnitude_series__angle_get_voltage_angle_series,true
1.34,-0.01759784046586793,-0.01759784046586793,Vmag_get_voltage_magnitude_series__angle_get_voltage_angle_series,true
1.35,-0.017645960125486228,-0.017645960125486228,Vmag_get_voltage_magnitude_series__angle_get_voltage_angle_series,true
1.36,-0.01769378631299956,-0.01769378631299956,Vmag_get_voltage_magnitude_series__angle_get_voltage_angle_series,true
1.37,-0.017741291089431035,-0.017741291089431035,Vmag_get_voltage_magnitude_series__angle_get_voltage_angle_series,true
1.38,-0.01778844697441915,-0.01778844697441915,Vmag_get_voltage_magnitude_series__angle_get_voltage_angle_series,true
1.39,-0.017835227206055793,-0.017835227206055793,Vmag_get_voltage_magnitude_series__angle_get_voltage_angle_series,true
1.4,-0.01788160597774597,-0.01788160597774597,Vmag_get_voltage_magnitude_series__angle_get_voltage_angle_series,true
1.41,-0.017927558655863284,-0.017927558655863284,Vmag_get_voltage_magnitude_series__angle_get_voltage_angle_series,true
1.42,-0.01797306197312211,-0.01797306197312211,Vmag_get_voltage_magnitude_series__angle_get_voltage_angle_series,true
1.43,-0.018018094199751967,-0.018018094199751967,Vmag_get_voltage_magnitude_series__angle_get_voltage_angle_series,true
1.44,-0.01806263529422253,-0.01806263529422253,Vmag_get_voltage_magnitude_series__angle_get_voltage_angle_series,true
1.45,-0.018106667029540665,-0.018106667029540665,Vmag_get_voltage_magnitude_series__angle_get_voltage_angle_series,true
1.46,-0.018150173097971175,-0.018150173097971175,Vmag_get_voltage_magnitude_series__angle_get_voltage_angle_series,true
1.47,-0.01819313919555245,-0.01819313919555245,Vmag_get_voltage_magnitude_series__angle_get_voltage_angle_series,true
1.48,-0.018235553084559177,-0.018235553084559177,Vmag_get_voltage_magnitude_series__angle_get_voltage_angle_series,true
1.49,-0.018277404635037534,-0.018277404635037534,Vmag_get_voltage_magnitude_series__angle_get_voltage_angle_series,true
1.5,-0.018318685846816295,-0.018318685846816295,Vmag_get_voltage_magnitude_series__angle_get_voltage_angle_series,true
1.51,-0.018359390854434124,-0.018359390854434124,Vmag_get_voltage_magnitude_series__angle_get_voltage_angle_series,true
1.52,-0.01839951591161026,-0.01839951591161026,Vmag_get_voltage_magnitude_series__angle_get_voltage_angle_series,true
1.53,-0.018439059360817762,-0.018439059360817762,Vmag_get_voltage_magnitude_series__angle_get_voltage_angle_series,true
1.54,-0.018478021585822915,-0.018478021585822915,Vmag_get_voltage_magnitude_series__angle_get_voltage_angle_series,true
1.55,-0.018516404950157047,-0.018516404950157047,Vmag_get_voltage_magnitude_series__angle_get_voltage_angle_series,true
1.56,-0.018554213722476766,-0.018554213722476766,Vmag_get_voltage_magnitude_series__angle_get_voltage_angle_series,true
1.57,-0.01859145398780406,-0.01859145398780406,Vmag_get_voltage_magnitude_series__angle_get_voltage_angle_series,true
1.58,-0.018628133551223284,-0.018628133551223284,Vmag_get_voltage_magnitude_series__angle_get_voltage_angle_series,true
1.59,-0.018664261828434763,-0.018664261828434763,Vmag_get_voltage_magnitude_series__angle_get_voltage_angle_series,true
1.6,-0.018699849729593057,-0.018699849729593057,Vmag_get_voltage_magnitude_series__angle_get_voltage_angle_series,true
1.61,-0.018734909536812668,-0.018734909536812668,Vmag_get_voltage_magnitude_series__angle_get_voltage_angle_series,true
1.62,-0.018769454773359243,-0.018769454773359243,Vmag_get_voltage_magnitude_series__angle_get_voltage_angle_series,true
1.63,-0.018803500071221505,-0.018803500071221505,Vmag_get_voltage_magnitude_series__angle_get_voltage_angle_series,true
1.64,-0.018837061033219773,-0.018837061033219773,Vmag_get_voltage_magnitude_series__angle_get_voltage_angle_series,true
1.65,-0.018870154093863046,-0.018870154093863046,Vmag_get_voltage_magnitude_series__angle_get_voltage_angle_series,true
1.66,-0.018902796379796152,-0.018902796379796152,Vmag_get_voltage_magnitude_series__angle_get_voltage_angle_series,true
1.67,-0.01893500556883456,-0.01893500556883456,Vmag_get_voltage_magnitude_series__angle_get_voltage_angle_series,true
1.68,-0.018966799752378825,-0.018966799752378825,Vmag_get_voltage_magnitude_series__angle_get_voltage_angle_series,true
1.69,-0.018998197298427867,-0.018998197298427867,Vmag_get_voltage_magnitude_series__angle_get_voltage_angle_series,true
1.7,-0.019029216718511786,-0.019029216718511786,Vmag_get_voltage_magnitude_series__angle_get_voltage_angle_series,true
1.71,-0.019059876538966878,-0.019059876538966878,Vmag_get_voltage_magnitude_series__angle_get_voltage_angle_series,true
1.72,-0.019090195176331568,-0.019090195176331568,Vmag_get_voltage_magnitude_series__angle_get_voltage_angle_series,true
1.73,-0.01912019081959059,-0.01912019081959059,Vmag_get_voltage_magnitude_series__angle_get_voltage_angle_series,true
1.74,-0.019149881317471713,-0.019149881317471713,Vmag_get_voltage_magnitude_series__angle_get_voltage_angle_series,true
1.75,-0.01917928407347794,-0.01917928407347794,Vmag_get_voltage_magnitude_series__angle_get_voltage_angle_series,true
1.76,-0.01920841594847686,-0.01920841594847686,Vmag_get_voltage_magnitude_series__angle_get_voltage_angle_series,true
1.77,-0.019237293170142406,-0.019237293170142406,Vmag_get_voltage_magnitude_series__angle_get_voltage_angle_series,true
1.78,-0.01926593125172941,-0.01926593125172941,Vmag_get_voltage_magnitude_series__angle_get_voltage_angle_series,true
1.79,-0.019294344918867754,-0.019294344918867754,Vmag_get_voltage_magnitude_series__angle_get_voltage_angle_series,true
1.8,-0.01932254804471665,-0.01932254804471665,Vmag_get_voltage_magnitude_series__angle_get_voltage_angle_series,true
1.81,-0.019350553594339962,-0.019350553594339962,Vmag_get_voltage_magnitude_series__angle_get_voltage_angle_series,true
1.82,-0.019378373578219556,-0.019378373578219556,Vmag_get_voltage_magnitude_series__angle_get_voltage_angle_series,true
1.83,-0.019406019013516213,-0.019406019013516213,Vmag_get_voltage_magnitude_series__angle_get_voltage_angle_series,true
1.84,-0.019433499895290918,-0.019433499895290918,Vmag_get_voltage_magnitude_series__angle_get_voltage_angle_series,true
1.85,-0.019460825175669095,-0.019460825175669095,Vmag_get_voltage_magnitude_series__angle_get_voltage_angle_series,true
1.86,-0.01948800275173869,-0.01948800275173869,Vmag_get_voltage_magnitude_series__angle_get_voltage_angle_series,true
1.87,-0.01951503946109801,-0.01951503946109801,Vmag_get_voltage_magnitude_series__angle_get_voltage_angle_series,true
1.88,-0.01954194108598539,-0.01954194108598539,Vmag_get_voltage_magnitude_series__angle_get_voltage_angle_series,true
1.89,-0.01956871236445336,-0.01956871236445336,Vmag_get_voltage_magnitude_series__angle_get_voltage_angle_series,true
1.9,-0.019595357008524612,-0.019595357008524612,Vmag_get_voltage_magnitude_series__angle_get_voltage_angle_series,true
1.91,-0.019621877729281686,-0.019621877729281686,Vmag_get_voltage_magnitude_series__angle_get_voltage_angle_series,true
1.92,-0.019648276268483377,-0.019648276268483377,Vmag_get_voltage_magnitude_series__angle_get_voltage_angle_series,true
1.93,-0.019674553435041015,-0.019674553435041015,Vmag_get_voltage_magnitude_series__angle_get_voltage_angle_series,true
1.94,-0.019700709147420763,-0.019700709147420763,Vmag_get_voltage_magnitude_series__angle_get_voltage_angle_series,true
1.95,-0.019726742480615674,-0.019726742480615674,Vmag_get_voltage_magnitude_series__angle_get_voltage_angle_series,true
1.96,-0.019752651717007904,-0.019752651717007904,Vmag_get_voltage_magnitude_series__angle_get_voltage_angle_series,true
1.97,-0.01977843440138583,-0.01977843440138583,Vmag_get_voltage_magnitude_series__angle_get_voltage_angle_series,true
1.98,-0.01980408739818889,-0.01980408739818889,Vmag_get_voltage_magnitude_series__angle_get_voltage_angle_series,true
1.99,-0.019829606951875328,-0.019829606951875328,Vmag_get_voltage_magnitude_series__angle_get_voltage_angle_series,true
...
